<?xml version="1.0" encoding="UTF-8"?>

<!-- generated on Thu Nov 12 18:42:32 2020 by Eclipse SUMO netgenerate Version 1.4.0
<configuration xmlns:xsi="http://www.w3.org/2001/XMLSchema-instance" xsi:noNamespaceSchemaLocation="http://sumo.dlr.de/xsd/netgenerateConfiguration.xsd">

    <grid_network>
        <grid value="true"/>
        <grid.x-number value="4"/>
        <grid.y-number value="2"/>
        <grid.x-length value="250"/>
        <grid.y-length value="500"/>
        <grid.attach-length value="100"/>
    </grid_network>

    <output>
        <output-file value="my_grid_net.net.xml"/>
    </output>

    <building_defaults>
        <default.lanenumber value="2"/>
        <default.speed value="13.89"/>
        <default.priority value="-1"/>
        <default.sidewalk-width value="2"/>
        <default.junctions.keep-clear value="true"/>
        <default.junctions.radius value="4"/>
        <default-junction-type value="traffic_light"/>
    </building_defaults>

    <tls_building>
        <tls.default-type value="static"/>
    </tls_building>

    <random_number>
        <random value="false"/>
        <seed value="23423"/>
    </random_number>

</configuration>
-->

<net version="1.3" junctionCornerDetail="5" limitTurnSpeed="5.50" xmlns:xsi="http://www.w3.org/2001/XMLSchema-instance" xsi:noNamespaceSchemaLocation="http://sumo.dlr.de/xsd/net_file.xsd">

    <location netOffset="0.00,0.00" convBoundary="0.00,0.00,950.00,700.00" origBoundary="0.00,0.00,950.00,700.00" projParameter="!"/>

    <edge id=":A0_0" function="internal">
        <lane id=":A0_0_0" index="0" speed="16.7" length="9.03" shape="95.20,110.40 94.85,107.95 93.80,106.20 92.05,105.15 89.60,104.80"/>
    </edge>
    <edge id=":A0_1" function="internal">
        <lane id=":A0_1_0" index="0" speed="16.7" length="20.80" shape="95.20,110.40 95.20,89.60"/>
        <lane id=":A0_1_1" index="1" speed="16.7" length="20.80" shape="98.40,110.40 98.40,89.60"/>
    </edge>
    <edge id=":A0_3" function="internal">
        <lane id=":A0_3_0" index="0" speed="16.7" length="6.96" shape="98.40,110.40 99.15,105.15 100.00,103.73"/>
    </edge>
    <edge id=":A0_4" function="internal">
        <lane id=":A0_4_0" index="0" speed="16.7" length="2.34" shape="98.40,110.40 99.20,109.20 100.00,108.80"/>
    </edge>
    <edge id=":A0_20" function="internal">
        <lane id=":A0_20_0" index="0" speed="16.7" length="12.40" shape="100.00,103.73 101.40,101.40 105.15,99.15 110.40,98.40"/>
    </edge>
    <edge id=":A0_21" function="internal">
        <lane id=":A0_21_0" index="0" speed="16.7" length="2.34" shape="100.00,108.80 100.80,109.20 101.60,110.40"/>
    </edge>
    <edge id=":A0_5" function="internal">
        <lane id=":A0_5_0" index="0" speed="16.7" length="9.03" shape="110.40,104.80 107.95,105.15 106.20,106.20 105.15,107.95 104.80,110.40"/>
    </edge>
    <edge id=":A0_6" function="internal">
        <lane id=":A0_6_0" index="0" speed="16.7" length="20.80" shape="110.40,104.80 89.60,104.80"/>
        <lane id=":A0_6_1" index="1" speed="16.7" length="20.80" shape="110.40,101.60 89.60,101.60"/>
    </edge>
    <edge id=":A0_8" function="internal">
        <lane id=":A0_8_0" index="0" speed="16.7" length="6.96" shape="110.40,101.60 105.15,100.85 103.73,100.00"/>
    </edge>
    <edge id=":A0_9" function="internal">
        <lane id=":A0_9_0" index="0" speed="16.7" length="2.34" shape="110.40,101.60 109.20,100.80 108.80,100.00"/>
    </edge>
    <edge id=":A0_22" function="internal">
        <lane id=":A0_22_0" index="0" speed="16.7" length="12.40" shape="103.73,100.00 101.40,98.60 99.15,94.85 98.40,89.60"/>
    </edge>
    <edge id=":A0_23" function="internal">
        <lane id=":A0_23_0" index="0" speed="16.7" length="2.34" shape="108.80,100.00 109.20,99.20 110.40,98.40"/>
    </edge>
    <edge id=":A0_10" function="internal">
        <lane id=":A0_10_0" index="0" speed="16.7" length="9.03" shape="104.80,89.60 105.15,92.05 106.20,93.80 107.95,94.85 110.40,95.20"/>
    </edge>
    <edge id=":A0_11" function="internal">
        <lane id=":A0_11_0" index="0" speed="16.7" length="20.80" shape="104.80,89.60 104.80,110.40"/>
        <lane id=":A0_11_1" index="1" speed="16.7" length="20.80" shape="101.60,89.60 101.60,110.40"/>
    </edge>
    <edge id=":A0_13" function="internal">
        <lane id=":A0_13_0" index="0" speed="16.7" length="6.96" shape="101.60,89.60 100.85,94.85 100.00,96.27"/>
    </edge>
    <edge id=":A0_14" function="internal">
        <lane id=":A0_14_0" index="0" speed="16.7" length="2.34" shape="101.60,89.60 100.80,90.80 100.00,91.20"/>
    </edge>
    <edge id=":A0_24" function="internal">
        <lane id=":A0_24_0" index="0" speed="16.7" length="12.40" shape="100.00,96.27 98.60,98.60 94.85,100.85 89.60,101.60"/>
    </edge>
    <edge id=":A0_25" function="internal">
        <lane id=":A0_25_0" index="0" speed="16.7" length="2.34" shape="100.00,91.20 99.20,90.80 98.40,89.60"/>
    </edge>
    <edge id=":A0_15" function="internal">
        <lane id=":A0_15_0" index="0" speed="16.7" length="9.03" shape="89.60,95.20 92.05,94.85 93.80,93.80 94.85,92.05 95.20,89.60"/>
    </edge>
    <edge id=":A0_16" function="internal">
        <lane id=":A0_16_0" index="0" speed="16.7" length="20.80" shape="89.60,95.20 110.40,95.20"/>
        <lane id=":A0_16_1" index="1" speed="16.7" length="20.80" shape="89.60,98.40 110.40,98.40"/>
    </edge>
    <edge id=":A0_18" function="internal">
        <lane id=":A0_18_0" index="0" speed="16.7" length="6.96" shape="89.60,98.40 94.85,99.15 96.27,100.00"/>
    </edge>
    <edge id=":A0_19" function="internal">
        <lane id=":A0_19_0" index="0" speed="16.7" length="2.34" shape="89.60,98.40 90.80,99.20 91.20,100.00"/>
    </edge>
    <edge id=":A0_26" function="internal">
        <lane id=":A0_26_0" index="0" speed="16.7" length="12.40" shape="96.27,100.00 98.60,101.40 100.85,105.15 101.60,110.40"/>
    </edge>
    <edge id=":A0_27" function="internal">
        <lane id=":A0_27_0" index="0" speed="16.7" length="2.34" shape="91.20,100.00 90.80,100.80 89.60,101.60"/>
    </edge>
    <edge id=":A1_0" function="internal">
        <lane id=":A1_0_0" index="0" speed="16.7" length="9.03" shape="95.20,610.40 94.85,607.95 93.80,606.20 92.05,605.15 89.60,604.80"/>
    </edge>
    <edge id=":A1_1" function="internal">
        <lane id=":A1_1_0" index="0" speed="16.7" length="20.80" shape="95.20,610.40 95.20,589.60"/>
        <lane id=":A1_1_1" index="1" speed="16.7" length="20.80" shape="98.40,610.40 98.40,589.60"/>
    </edge>
    <edge id=":A1_3" function="internal">
        <lane id=":A1_3_0" index="0" speed="16.7" length="6.96" shape="98.40,610.40 99.15,605.15 100.00,603.73"/>
    </edge>
    <edge id=":A1_4" function="internal">
        <lane id=":A1_4_0" index="0" speed="16.7" length="2.34" shape="98.40,610.40 99.20,609.20 100.00,608.80"/>
    </edge>
    <edge id=":A1_20" function="internal">
        <lane id=":A1_20_0" index="0" speed="16.7" length="12.40" shape="100.00,603.73 101.40,601.40 105.15,599.15 110.40,598.40"/>
    </edge>
    <edge id=":A1_21" function="internal">
        <lane id=":A1_21_0" index="0" speed="16.7" length="2.34" shape="100.00,608.80 100.80,609.20 101.60,610.40"/>
    </edge>
    <edge id=":A1_5" function="internal">
        <lane id=":A1_5_0" index="0" speed="16.7" length="9.03" shape="110.40,604.80 107.95,605.15 106.20,606.20 105.15,607.95 104.80,610.40"/>
    </edge>
    <edge id=":A1_6" function="internal">
        <lane id=":A1_6_0" index="0" speed="16.7" length="20.80" shape="110.40,604.80 89.60,604.80"/>
        <lane id=":A1_6_1" index="1" speed="16.7" length="20.80" shape="110.40,601.60 89.60,601.60"/>
    </edge>
    <edge id=":A1_8" function="internal">
        <lane id=":A1_8_0" index="0" speed="16.7" length="6.96" shape="110.40,601.60 105.15,600.85 103.73,600.00"/>
    </edge>
    <edge id=":A1_9" function="internal">
        <lane id=":A1_9_0" index="0" speed="16.7" length="2.34" shape="110.40,601.60 109.20,600.80 108.80,600.00"/>
    </edge>
    <edge id=":A1_22" function="internal">
        <lane id=":A1_22_0" index="0" speed="16.7" length="12.40" shape="103.73,600.00 101.40,598.60 99.15,594.85 98.40,589.60"/>
    </edge>
    <edge id=":A1_23" function="internal">
        <lane id=":A1_23_0" index="0" speed="16.7" length="2.34" shape="108.80,600.00 109.20,599.20 110.40,598.40"/>
    </edge>
    <edge id=":A1_10" function="internal">
        <lane id=":A1_10_0" index="0" speed="16.7" length="9.03" shape="104.80,589.60 105.15,592.05 106.20,593.80 107.95,594.85 110.40,595.20"/>
    </edge>
    <edge id=":A1_11" function="internal">
        <lane id=":A1_11_0" index="0" speed="16.7" length="20.80" shape="104.80,589.60 104.80,610.40"/>
        <lane id=":A1_11_1" index="1" speed="16.7" length="20.80" shape="101.60,589.60 101.60,610.40"/>
    </edge>
    <edge id=":A1_13" function="internal">
        <lane id=":A1_13_0" index="0" speed="16.7" length="6.96" shape="101.60,589.60 100.85,594.85 100.00,596.27"/>
    </edge>
    <edge id=":A1_14" function="internal">
        <lane id=":A1_14_0" index="0" speed="16.7" length="2.34" shape="101.60,589.60 100.80,590.80 100.00,591.20"/>
    </edge>
    <edge id=":A1_24" function="internal">
        <lane id=":A1_24_0" index="0" speed="16.7" length="12.40" shape="100.00,596.27 98.60,598.60 94.85,600.85 89.60,601.60"/>
    </edge>
    <edge id=":A1_25" function="internal">
        <lane id=":A1_25_0" index="0" speed="16.7" length="2.34" shape="100.00,591.20 99.20,590.80 98.40,589.60"/>
    </edge>
    <edge id=":A1_15" function="internal">
        <lane id=":A1_15_0" index="0" speed="16.7" length="9.03" shape="89.60,595.20 92.05,594.85 93.80,593.80 94.85,592.05 95.20,589.60"/>
    </edge>
    <edge id=":A1_16" function="internal">
        <lane id=":A1_16_0" index="0" speed="16.7" length="20.80" shape="89.60,595.20 110.40,595.20"/>
        <lane id=":A1_16_1" index="1" speed="16.7" length="20.80" shape="89.60,598.40 110.40,598.40"/>
    </edge>
    <edge id=":A1_18" function="internal">
        <lane id=":A1_18_0" index="0" speed="16.7" length="6.96" shape="89.60,598.40 94.85,599.15 96.27,600.00"/>
    </edge>
    <edge id=":A1_19" function="internal">
        <lane id=":A1_19_0" index="0" speed="16.7" length="2.34" shape="89.60,598.40 90.80,599.20 91.20,600.00"/>
    </edge>
    <edge id=":A1_26" function="internal">
        <lane id=":A1_26_0" index="0" speed="16.7" length="12.40" shape="96.27,600.00 98.60,601.40 100.85,605.15 101.60,610.40"/>
    </edge>
    <edge id=":A1_27" function="internal">
        <lane id=":A1_27_0" index="0" speed="16.7" length="2.34" shape="91.20,600.00 90.80,600.80 89.60,601.60"/>
    </edge>
    <edge id=":B0_0" function="internal">
        <lane id=":B0_0_0" index="0" speed="16.7" length="9.03" shape="345.20,110.40 344.85,107.95 343.80,106.20 342.05,105.15 339.60,104.80"/>
    </edge>
    <edge id=":B0_1" function="internal">
        <lane id=":B0_1_0" index="0" speed="16.7" length="20.80" shape="345.20,110.40 345.20,89.60"/>
        <lane id=":B0_1_1" index="1" speed="16.7" length="20.80" shape="348.40,110.40 348.40,89.60"/>
    </edge>
    <edge id=":B0_3" function="internal">
        <lane id=":B0_3_0" index="0" speed="16.7" length="6.96" shape="348.40,110.40 349.15,105.15 350.00,103.73"/>
    </edge>
    <edge id=":B0_4" function="internal">
        <lane id=":B0_4_0" index="0" speed="16.7" length="2.34" shape="348.40,110.40 349.20,109.20 350.00,108.80"/>
    </edge>
    <edge id=":B0_20" function="internal">
        <lane id=":B0_20_0" index="0" speed="16.7" length="12.40" shape="350.00,103.73 351.40,101.40 355.15,99.15 360.40,98.40"/>
    </edge>
    <edge id=":B0_21" function="internal">
        <lane id=":B0_21_0" index="0" speed="16.7" length="2.34" shape="350.00,108.80 350.80,109.20 351.60,110.40"/>
    </edge>
    <edge id=":B0_5" function="internal">
        <lane id=":B0_5_0" index="0" speed="16.7" length="9.03" shape="360.40,104.80 357.95,105.15 356.20,106.20 355.15,107.95 354.80,110.40"/>
    </edge>
    <edge id=":B0_6" function="internal">
        <lane id=":B0_6_0" index="0" speed="16.7" length="20.80" shape="360.40,104.80 339.60,104.80"/>
        <lane id=":B0_6_1" index="1" speed="16.7" length="20.80" shape="360.40,101.60 339.60,101.60"/>
    </edge>
    <edge id=":B0_8" function="internal">
        <lane id=":B0_8_0" index="0" speed="16.7" length="6.96" shape="360.40,101.60 355.15,100.85 353.73,100.00"/>
    </edge>
    <edge id=":B0_9" function="internal">
        <lane id=":B0_9_0" index="0" speed="16.7" length="2.34" shape="360.40,101.60 359.20,100.80 358.80,100.00"/>
    </edge>
    <edge id=":B0_22" function="internal">
        <lane id=":B0_22_0" index="0" speed="16.7" length="12.40" shape="353.73,100.00 351.40,98.60 349.15,94.85 348.40,89.60"/>
    </edge>
    <edge id=":B0_23" function="internal">
        <lane id=":B0_23_0" index="0" speed="16.7" length="2.34" shape="358.80,100.00 359.20,99.20 360.40,98.40"/>
    </edge>
    <edge id=":B0_10" function="internal">
        <lane id=":B0_10_0" index="0" speed="16.7" length="9.03" shape="354.80,89.60 355.15,92.05 356.20,93.80 357.95,94.85 360.40,95.20"/>
    </edge>
    <edge id=":B0_11" function="internal">
        <lane id=":B0_11_0" index="0" speed="16.7" length="20.80" shape="354.80,89.60 354.80,110.40"/>
        <lane id=":B0_11_1" index="1" speed="16.7" length="20.80" shape="351.60,89.60 351.60,110.40"/>
    </edge>
    <edge id=":B0_13" function="internal">
        <lane id=":B0_13_0" index="0" speed="16.7" length="6.96" shape="351.60,89.60 350.85,94.85 350.00,96.27"/>
    </edge>
    <edge id=":B0_14" function="internal">
        <lane id=":B0_14_0" index="0" speed="16.7" length="2.34" shape="351.60,89.60 350.80,90.80 350.00,91.20"/>
    </edge>
    <edge id=":B0_24" function="internal">
        <lane id=":B0_24_0" index="0" speed="16.7" length="12.40" shape="350.00,96.27 348.60,98.60 344.85,100.85 339.60,101.60"/>
    </edge>
    <edge id=":B0_25" function="internal">
        <lane id=":B0_25_0" index="0" speed="16.7" length="2.34" shape="350.00,91.20 349.20,90.80 348.40,89.60"/>
    </edge>
    <edge id=":B0_15" function="internal">
        <lane id=":B0_15_0" index="0" speed="16.7" length="9.03" shape="339.60,95.20 342.05,94.85 343.80,93.80 344.85,92.05 345.20,89.60"/>
    </edge>
    <edge id=":B0_16" function="internal">
        <lane id=":B0_16_0" index="0" speed="16.7" length="20.80" shape="339.60,95.20 360.40,95.20"/>
        <lane id=":B0_16_1" index="1" speed="16.7" length="20.80" shape="339.60,98.40 360.40,98.40"/>
    </edge>
    <edge id=":B0_18" function="internal">
        <lane id=":B0_18_0" index="0" speed="16.7" length="6.96" shape="339.60,98.40 344.85,99.15 346.27,100.00"/>
    </edge>
    <edge id=":B0_19" function="internal">
        <lane id=":B0_19_0" index="0" speed="16.7" length="2.34" shape="339.60,98.40 340.80,99.20 341.20,100.00"/>
    </edge>
    <edge id=":B0_26" function="internal">
        <lane id=":B0_26_0" index="0" speed="16.7" length="12.40" shape="346.27,100.00 348.60,101.40 350.85,105.15 351.60,110.40"/>
    </edge>
    <edge id=":B0_27" function="internal">
        <lane id=":B0_27_0" index="0" speed="16.7" length="2.34" shape="341.20,100.00 340.80,100.80 339.60,101.60"/>
    </edge>
    <edge id=":B1_0" function="internal">
        <lane id=":B1_0_0" index="0" speed="16.7" length="9.03" shape="345.20,610.40 344.85,607.95 343.80,606.20 342.05,605.15 339.60,604.80"/>
    </edge>
    <edge id=":B1_1" function="internal">
        <lane id=":B1_1_0" index="0" speed="16.7" length="20.80" shape="345.20,610.40 345.20,589.60"/>
        <lane id=":B1_1_1" index="1" speed="16.7" length="20.80" shape="348.40,610.40 348.40,589.60"/>
    </edge>
    <edge id=":B1_3" function="internal">
        <lane id=":B1_3_0" index="0" speed="16.7" length="6.96" shape="348.40,610.40 349.15,605.15 350.00,603.73"/>
    </edge>
    <edge id=":B1_4" function="internal">
        <lane id=":B1_4_0" index="0" speed="16.7" length="2.34" shape="348.40,610.40 349.20,609.20 350.00,608.80"/>
    </edge>
    <edge id=":B1_20" function="internal">
        <lane id=":B1_20_0" index="0" speed="16.7" length="12.40" shape="350.00,603.73 351.40,601.40 355.15,599.15 360.40,598.40"/>
    </edge>
    <edge id=":B1_21" function="internal">
        <lane id=":B1_21_0" index="0" speed="16.7" length="2.34" shape="350.00,608.80 350.80,609.20 351.60,610.40"/>
    </edge>
    <edge id=":B1_5" function="internal">
        <lane id=":B1_5_0" index="0" speed="16.7" length="9.03" shape="360.40,604.80 357.95,605.15 356.20,606.20 355.15,607.95 354.80,610.40"/>
    </edge>
    <edge id=":B1_6" function="internal">
        <lane id=":B1_6_0" index="0" speed="16.7" length="20.80" shape="360.40,604.80 339.60,604.80"/>
        <lane id=":B1_6_1" index="1" speed="16.7" length="20.80" shape="360.40,601.60 339.60,601.60"/>
    </edge>
    <edge id=":B1_8" function="internal">
        <lane id=":B1_8_0" index="0" speed="16.7" length="6.96" shape="360.40,601.60 355.15,600.85 353.73,600.00"/>
    </edge>
    <edge id=":B1_9" function="internal">
        <lane id=":B1_9_0" index="0" speed="16.7" length="2.34" shape="360.40,601.60 359.20,600.80 358.80,600.00"/>
    </edge>
    <edge id=":B1_22" function="internal">
        <lane id=":B1_22_0" index="0" speed="16.7" length="12.40" shape="353.73,600.00 351.40,598.60 349.15,594.85 348.40,589.60"/>
    </edge>
    <edge id=":B1_23" function="internal">
        <lane id=":B1_23_0" index="0" speed="16.7" length="2.34" shape="358.80,600.00 359.20,599.20 360.40,598.40"/>
    </edge>
    <edge id=":B1_10" function="internal">
        <lane id=":B1_10_0" index="0" speed="16.7" length="9.03" shape="354.80,589.60 355.15,592.05 356.20,593.80 357.95,594.85 360.40,595.20"/>
    </edge>
    <edge id=":B1_11" function="internal">
        <lane id=":B1_11_0" index="0" speed="16.7" length="20.80" shape="354.80,589.60 354.80,610.40"/>
        <lane id=":B1_11_1" index="1" speed="16.7" length="20.80" shape="351.60,589.60 351.60,610.40"/>
    </edge>
    <edge id=":B1_13" function="internal">
        <lane id=":B1_13_0" index="0" speed="16.7" length="6.96" shape="351.60,589.60 350.85,594.85 350.00,596.27"/>
    </edge>
    <edge id=":B1_14" function="internal">
        <lane id=":B1_14_0" index="0" speed="16.7" length="2.34" shape="351.60,589.60 350.80,590.80 350.00,591.20"/>
    </edge>
    <edge id=":B1_24" function="internal">
        <lane id=":B1_24_0" index="0" speed="16.7" length="12.40" shape="350.00,596.27 348.60,598.60 344.85,600.85 339.60,601.60"/>
    </edge>
    <edge id=":B1_25" function="internal">
        <lane id=":B1_25_0" index="0" speed="16.7" length="2.34" shape="350.00,591.20 349.20,590.80 348.40,589.60"/>
    </edge>
    <edge id=":B1_15" function="internal">
        <lane id=":B1_15_0" index="0" speed="16.7" length="9.03" shape="339.60,595.20 342.05,594.85 343.80,593.80 344.85,592.05 345.20,589.60"/>
    </edge>
    <edge id=":B1_16" function="internal">
        <lane id=":B1_16_0" index="0" speed="16.7" length="20.80" shape="339.60,595.20 360.40,595.20"/>
        <lane id=":B1_16_1" index="1" speed="16.7" length="20.80" shape="339.60,598.40 360.40,598.40"/>
    </edge>
    <edge id=":B1_18" function="internal">
        <lane id=":B1_18_0" index="0" speed="16.7" length="6.96" shape="339.60,598.40 344.85,599.15 346.27,600.00"/>
    </edge>
    <edge id=":B1_19" function="internal">
        <lane id=":B1_19_0" index="0" speed="16.7" length="2.34" shape="339.60,598.40 340.80,599.20 341.20,600.00"/>
    </edge>
    <edge id=":B1_26" function="internal">
        <lane id=":B1_26_0" index="0" speed="16.7" length="12.40" shape="346.27,600.00 348.60,601.40 350.85,605.15 351.60,610.40"/>
    </edge>
    <edge id=":B1_27" function="internal">
        <lane id=":B1_27_0" index="0" speed="16.7" length="2.34" shape="341.20,600.00 340.80,600.80 339.60,601.60"/>
    </edge>
    <edge id=":C0_0" function="internal">
        <lane id=":C0_0_0" index="0" speed="16.7" length="9.03" shape="595.20,110.40 594.85,107.95 593.80,106.20 592.05,105.15 589.60,104.80"/>
    </edge>
    <edge id=":C0_1" function="internal">
        <lane id=":C0_1_0" index="0" speed="16.7" length="20.80" shape="595.20,110.40 595.20,89.60"/>
        <lane id=":C0_1_1" index="1" speed="16.7" length="20.80" shape="598.40,110.40 598.40,89.60"/>
    </edge>
    <edge id=":C0_3" function="internal">
        <lane id=":C0_3_0" index="0" speed="16.7" length="6.96" shape="598.40,110.40 599.15,105.15 600.00,103.73"/>
    </edge>
    <edge id=":C0_4" function="internal">
        <lane id=":C0_4_0" index="0" speed="16.7" length="2.34" shape="598.40,110.40 599.20,109.20 600.00,108.80"/>
    </edge>
    <edge id=":C0_20" function="internal">
        <lane id=":C0_20_0" index="0" speed="16.7" length="12.40" shape="600.00,103.73 601.40,101.40 605.15,99.15 610.40,98.40"/>
    </edge>
    <edge id=":C0_21" function="internal">
        <lane id=":C0_21_0" index="0" speed="16.7" length="2.34" shape="600.00,108.80 600.80,109.20 601.60,110.40"/>
    </edge>
    <edge id=":C0_5" function="internal">
        <lane id=":C0_5_0" index="0" speed="16.7" length="9.03" shape="610.40,104.80 607.95,105.15 606.20,106.20 605.15,107.95 604.80,110.40"/>
    </edge>
    <edge id=":C0_6" function="internal">
        <lane id=":C0_6_0" index="0" speed="16.7" length="20.80" shape="610.40,104.80 589.60,104.80"/>
        <lane id=":C0_6_1" index="1" speed="16.7" length="20.80" shape="610.40,101.60 589.60,101.60"/>
    </edge>
    <edge id=":C0_8" function="internal">
        <lane id=":C0_8_0" index="0" speed="16.7" length="6.96" shape="610.40,101.60 605.15,100.85 603.73,100.00"/>
    </edge>
    <edge id=":C0_9" function="internal">
        <lane id=":C0_9_0" index="0" speed="16.7" length="2.34" shape="610.40,101.60 609.20,100.80 608.80,100.00"/>
    </edge>
    <edge id=":C0_22" function="internal">
        <lane id=":C0_22_0" index="0" speed="16.7" length="12.40" shape="603.73,100.00 601.40,98.60 599.15,94.85 598.40,89.60"/>
    </edge>
    <edge id=":C0_23" function="internal">
        <lane id=":C0_23_0" index="0" speed="16.7" length="2.34" shape="608.80,100.00 609.20,99.20 610.40,98.40"/>
    </edge>
    <edge id=":C0_10" function="internal">
        <lane id=":C0_10_0" index="0" speed="16.7" length="9.03" shape="604.80,89.60 605.15,92.05 606.20,93.80 607.95,94.85 610.40,95.20"/>
    </edge>
    <edge id=":C0_11" function="internal">
        <lane id=":C0_11_0" index="0" speed="16.7" length="20.80" shape="604.80,89.60 604.80,110.40"/>
        <lane id=":C0_11_1" index="1" speed="16.7" length="20.80" shape="601.60,89.60 601.60,110.40"/>
    </edge>
    <edge id=":C0_13" function="internal">
        <lane id=":C0_13_0" index="0" speed="16.7" length="6.96" shape="601.60,89.60 600.85,94.85 600.00,96.27"/>
    </edge>
    <edge id=":C0_14" function="internal">
        <lane id=":C0_14_0" index="0" speed="16.7" length="2.34" shape="601.60,89.60 600.80,90.80 600.00,91.20"/>
    </edge>
    <edge id=":C0_24" function="internal">
        <lane id=":C0_24_0" index="0" speed="16.7" length="12.40" shape="600.00,96.27 598.60,98.60 594.85,100.85 589.60,101.60"/>
    </edge>
    <edge id=":C0_25" function="internal">
        <lane id=":C0_25_0" index="0" speed="16.7" length="2.34" shape="600.00,91.20 599.20,90.80 598.40,89.60"/>
    </edge>
    <edge id=":C0_15" function="internal">
        <lane id=":C0_15_0" index="0" speed="16.7" length="9.03" shape="589.60,95.20 592.05,94.85 593.80,93.80 594.85,92.05 595.20,89.60"/>
    </edge>
    <edge id=":C0_16" function="internal">
        <lane id=":C0_16_0" index="0" speed="16.7" length="20.80" shape="589.60,95.20 610.40,95.20"/>
        <lane id=":C0_16_1" index="1" speed="16.7" length="20.80" shape="589.60,98.40 610.40,98.40"/>
    </edge>
    <edge id=":C0_18" function="internal">
        <lane id=":C0_18_0" index="0" speed="16.7" length="6.96" shape="589.60,98.40 594.85,99.15 596.27,100.00"/>
    </edge>
    <edge id=":C0_19" function="internal">
        <lane id=":C0_19_0" index="0" speed="16.7" length="2.34" shape="589.60,98.40 590.80,99.20 591.20,100.00"/>
    </edge>
    <edge id=":C0_26" function="internal">
        <lane id=":C0_26_0" index="0" speed="16.7" length="12.40" shape="596.27,100.00 598.60,101.40 600.85,105.15 601.60,110.40"/>
    </edge>
    <edge id=":C0_27" function="internal">
        <lane id=":C0_27_0" index="0" speed="16.7" length="2.34" shape="591.20,100.00 590.80,100.80 589.60,101.60"/>
    </edge>
    <edge id=":C1_0" function="internal">
        <lane id=":C1_0_0" index="0" speed="16.7" length="9.03" shape="595.20,610.40 594.85,607.95 593.80,606.20 592.05,605.15 589.60,604.80"/>
    </edge>
    <edge id=":C1_1" function="internal">
        <lane id=":C1_1_0" index="0" speed="16.7" length="20.80" shape="595.20,610.40 595.20,589.60"/>
        <lane id=":C1_1_1" index="1" speed="16.7" length="20.80" shape="598.40,610.40 598.40,589.60"/>
    </edge>
    <edge id=":C1_3" function="internal">
        <lane id=":C1_3_0" index="0" speed="16.7" length="6.96" shape="598.40,610.40 599.15,605.15 600.00,603.73"/>
    </edge>
    <edge id=":C1_4" function="internal">
        <lane id=":C1_4_0" index="0" speed="16.7" length="2.34" shape="598.40,610.40 599.20,609.20 600.00,608.80"/>
    </edge>
    <edge id=":C1_20" function="internal">
        <lane id=":C1_20_0" index="0" speed="16.7" length="12.40" shape="600.00,603.73 601.40,601.40 605.15,599.15 610.40,598.40"/>
    </edge>
    <edge id=":C1_21" function="internal">
        <lane id=":C1_21_0" index="0" speed="16.7" length="2.34" shape="600.00,608.80 600.80,609.20 601.60,610.40"/>
    </edge>
    <edge id=":C1_5" function="internal">
        <lane id=":C1_5_0" index="0" speed="16.7" length="9.03" shape="610.40,604.80 607.95,605.15 606.20,606.20 605.15,607.95 604.80,610.40"/>
    </edge>
    <edge id=":C1_6" function="internal">
        <lane id=":C1_6_0" index="0" speed="16.7" length="20.80" shape="610.40,604.80 589.60,604.80"/>
        <lane id=":C1_6_1" index="1" speed="16.7" length="20.80" shape="610.40,601.60 589.60,601.60"/>
    </edge>
    <edge id=":C1_8" function="internal">
        <lane id=":C1_8_0" index="0" speed="16.7" length="6.96" shape="610.40,601.60 605.15,600.85 603.73,600.00"/>
    </edge>
    <edge id=":C1_9" function="internal">
        <lane id=":C1_9_0" index="0" speed="16.7" length="2.34" shape="610.40,601.60 609.20,600.80 608.80,600.00"/>
    </edge>
    <edge id=":C1_22" function="internal">
        <lane id=":C1_22_0" index="0" speed="16.7" length="12.40" shape="603.73,600.00 601.40,598.60 599.15,594.85 598.40,589.60"/>
    </edge>
    <edge id=":C1_23" function="internal">
        <lane id=":C1_23_0" index="0" speed="16.7" length="2.34" shape="608.80,600.00 609.20,599.20 610.40,598.40"/>
    </edge>
    <edge id=":C1_10" function="internal">
        <lane id=":C1_10_0" index="0" speed="16.7" length="9.03" shape="604.80,589.60 605.15,592.05 606.20,593.80 607.95,594.85 610.40,595.20"/>
    </edge>
    <edge id=":C1_11" function="internal">
        <lane id=":C1_11_0" index="0" speed="16.7" length="20.80" shape="604.80,589.60 604.80,610.40"/>
        <lane id=":C1_11_1" index="1" speed="16.7" length="20.80" shape="601.60,589.60 601.60,610.40"/>
    </edge>
    <edge id=":C1_13" function="internal">
        <lane id=":C1_13_0" index="0" speed="16.7" length="6.96" shape="601.60,589.60 600.85,594.85 600.00,596.27"/>
    </edge>
    <edge id=":C1_14" function="internal">
        <lane id=":C1_14_0" index="0" speed="16.7" length="2.34" shape="601.60,589.60 600.80,590.80 600.00,591.20"/>
    </edge>
    <edge id=":C1_24" function="internal">
        <lane id=":C1_24_0" index="0" speed="16.7" length="12.40" shape="600.00,596.27 598.60,598.60 594.85,600.85 589.60,601.60"/>
    </edge>
    <edge id=":C1_25" function="internal">
        <lane id=":C1_25_0" index="0" speed="16.7" length="2.34" shape="600.00,591.20 599.20,590.80 598.40,589.60"/>
    </edge>
    <edge id=":C1_15" function="internal">
        <lane id=":C1_15_0" index="0" speed="16.7" length="9.03" shape="589.60,595.20 592.05,594.85 593.80,593.80 594.85,592.05 595.20,589.60"/>
    </edge>
    <edge id=":C1_16" function="internal">
        <lane id=":C1_16_0" index="0" speed="16.7" length="20.80" shape="589.60,595.20 610.40,595.20"/>
        <lane id=":C1_16_1" index="1" speed="16.7" length="20.80" shape="589.60,598.40 610.40,598.40"/>
    </edge>
    <edge id=":C1_18" function="internal">
        <lane id=":C1_18_0" index="0" speed="16.7" length="6.96" shape="589.60,598.40 594.85,599.15 596.27,600.00"/>
    </edge>
    <edge id=":C1_19" function="internal">
        <lane id=":C1_19_0" index="0" speed="16.7" length="2.34" shape="589.60,598.40 590.80,599.20 591.20,600.00"/>
    </edge>
    <edge id=":C1_26" function="internal">
        <lane id=":C1_26_0" index="0" speed="16.7" length="12.40" shape="596.27,600.00 598.60,601.40 600.85,605.15 601.60,610.40"/>
    </edge>
    <edge id=":C1_27" function="internal">
        <lane id=":C1_27_0" index="0" speed="16.7" length="2.34" shape="591.20,600.00 590.80,600.80 589.60,601.60"/>
    </edge>
    <edge id=":D0_0" function="internal">
        <lane id=":D0_0_0" index="0" speed="16.7" length="9.03" shape="845.20,110.40 844.85,107.95 843.80,106.20 842.05,105.15 839.60,104.80"/>
    </edge>
    <edge id=":D0_1" function="internal">
        <lane id=":D0_1_0" index="0" speed="16.7" length="20.80" shape="845.20,110.40 845.20,89.60"/>
        <lane id=":D0_1_1" index="1" speed="16.7" length="20.80" shape="848.40,110.40 848.40,89.60"/>
    </edge>
    <edge id=":D0_3" function="internal">
        <lane id=":D0_3_0" index="0" speed="16.7" length="6.96" shape="848.40,110.40 849.15,105.15 850.00,103.73"/>
    </edge>
    <edge id=":D0_4" function="internal">
        <lane id=":D0_4_0" index="0" speed="16.7" length="2.34" shape="848.40,110.40 849.20,109.20 850.00,108.80"/>
    </edge>